d_039_fault_mdl.m
% 这个版本中的电动机用的是恒转矩模型，并且在重负荷地区
% [3,4,7,8,15,16,18]区域用电动机替代了一批恒阻抗负荷
% 剩余的负荷采用50%+50%的恒阻抗+恒功率替代

% 切机安排在4，7，18节点，故障时间设置为1s+0.2s
% 切除时间为1.2+0.2=1.4s，针对每组故障切固定比例的负荷，同时切除整数的电动机,作为预决策策略

Bus.con = [ ... 
  1  345  1  0  1  1;
  2  345  1  0  1  1;
  3  345  1  0  1  1;
  4  345  1  0  1  1;
  5  345  1  0  1  1;
  6  345  1  0  1  1;
  7  345  1  0  1  1;
  8  345  1  0  1  1;
  9  345  1  0  1  1;
  10  345  1  0  1  1;
  11  345  1  0  1  1;
  12  345  1  0  1  1;
  13  345  1  0  1  1;
  14  345  1  0  1  1;
  15  345  1  0  1  1;
  16  345  1  0  1  1;
  17  345  1  0  1  1;
  18  345  1  0  1  1;
  19  345  1  0  1  1;
  20  345  1  0  1  1;
  21  345  1  0  1  1;
  22  345  1  0  1  1;
  23  345  1  0  1  1;
  24  345  1  0  1  1;
  25  345  1  0  1  1;
  26  345  1  0  1  1;
  27  345  1  0  1  1;
  28  345  1  0  1  1;
  29  345  1  0  1  1;
  30  20  1  0  1  1;
  31  20  1  0  1  1;
  32  20  1  0  1  1;
  33  20  1  0  1  1;
  34  20  1  0  1  1;
  35  20  1  0  1  1;
  36  20  1  0  1  1;
  37  20  1  0  1  1;
  38  20  1  0  1  1;
  39  345  1  0  1  1;
 ];

Line.con = [ ... 
  2  1  100  345  60  0  0  0.0035  0.0411  0.6987  0  0  0  0  0  1;
  5  8  100  345  60  0  0  0.0008  0.0112  0.1476  0  0  0  0  0  1;
  6  7  100  345  60  0  0  0.0006  0.0092  0.113  0  0  0  0  0  1;
  11  6  100  345  60  0  0  0.0007  0.0082  0.1389  0  0  0  0  0  1;
  7  8  100  345  60  0  0  0.0004  0.0046  0.078  0  0  0  0  0  1;
  8  9  100  345  60  0  0  0.0023  0.0363  0.3804  0  0  0  0  0  1;
  39  9  100  345  60  0  0  0.001  0.025  1.2  0  0  0  0  0  1;
  10  11  100  345  60  0  0  0.0004  0.0043  0.0729  0  0  0  0  0  1;
  10  13  100  345  60  0  0  0.0004  0.0043  0.0729  0  0  0  0  0  1;
  13  14  100  345  60  0  0  0.0009  0.0101  0.1723  0  0  0  0  0  1;
  15  14  100  345  60  0  0  0.0018  0.0217  0.366  0  0  0  0  0  1;
  1  39  100  345  60  0  0  0.001  0.025  0.75  0  0  0  0  0  1;
  15  16  100  345  60  0  0  0.0009  0.0094  0.171  0  0  0  0  0  1;
  16  17  100  345  60  0  0  0.0007  0.0089  0.1342  0  0  0  0  0  1;
  16  19  100  345  60  0  0  0.0016  0.0195  0.304  0  0  0  0  0  1;
  21  16  100  345  60  0  0  0.0008  0.0135  0.2548  0  0  0  0  0  1;
  24  16  100  345  60  0  0  0.0003  0.0059  0.068  0  0  0  0  0  1;
  17  18  100  345  60  0  0  0.0007  0.0082  0.1319  0  0  0  0  0  1;
  17  27  100  345  60  0  0  0.0013  0.0173  0.3216  0  0  0  0  0  1;
  22  21  100  345  60  0  0  0.0008  0.014  0.2565  0  0  0  0  0  1;
  23  22  100  345  60  0  0  0.0006  0.0096  0.1846  0  0  0  0  0  1;
  24  23  100  345  60  0  0  0.0022  0.035  0.361  0  0  0  0  0  1;
  2  3  100  345  60  0  0  0.0013  0.0151  0.2572  0  0  0  0  0  1;
  26  25  100  345  60  0  0  0.0032  0.0323  0.513  0  0  0  0  0  1;
  27  26  100  345  60  0  0  0.0014  0.0147  0.2396  0  0  0  0  0  1;
  28  26  100  345  60  0  0  0.0043  0.0474  0.7802  0  0  0  0  0  1;
  29  26  100  345  60  0  0  0.0057  0.0625  1.029  0  0  0  0  0  1;
  29  28  100  345  60  0  0  0.0014  0.0151  0.249  0  0  0  0  0  1;
  2  25  100  345  60  0  0  0.007  0.0086  0.146  0  0  0  0  0  1;
  3  4  100  345  60  0  0  0.0013  0.0213  0.2214  0  0  0  0  0  1;
  18  3  100  345  60  0  0  0.0011  0.0133  0.2138  0  0  0  0  0  1;
  4  5  100  345  60  0  0  0.0008  0.0128  0.1342  0  0  0  0  0  1;
  14  4  100  345  60  0  0  0.0008  0.0129  0.1382  0  0  0  0  0  1;
  6  5  100  345  60  0  0  0.0002  0.0026  0.0434  0  0  0  0  0  1;
  13  12  100  345  60  0  1  0.0016  0.0435  0  1.006  0  0  0  0  1;
  2  30  100  345  60  0  17.25  0  0.0181  0  1.025  0  0  0  0  1;
  6  31  100  345  60  0  17.25  0  0.025  0  1.07  0  0  0  0  1;
  19  20  100  345  60  0  1  0.0007  0.0138  0  1.06  0  0  0  0  1;
  10  32  100  345  60  0  17.25  0  0.02  0  1.07  0  0  0  0  1;
  20  34  100  345  60  0  17.25  0.0009  0.018  0  1.009  0  0  0  0  1;
  23  36  100  345  60  0  17.25  0.0005  0.0272  0  1  0  0  0  0  1;
  22  35  100  345  60  0  17.25  0  0.0143  0  1.025  0  0  0  0  1;
  19  33  100  345  60  0  17.25  0.0007  0.0142  0  1.07  0  0  0  0  1;
  11  12  100  345  60  0  1  0.0016  0.0435  0  1.006  0  0  0  0  1;
  29  38  100  345  60  0  17.25  0.0008  0.0156  0  1.025  0  0  0  0  1;
  25  37  100  345  60  0  17.25  0.0006  0.0232  0  1.025  0  0  0  0  1;
 ];

SW.con = [ ... 
  31  100  20  0.982  0  6  -5  1.1  0.9  0.8  1  1  1;
 ];

PV.con = [ ... 
  39  100  345  10  1.03  2  -10  1.1  0.9  1  1;
  30  100  20  2.5  1.0475  2  -5  1.1  0.9  1  1;
  32  100  20  6.5  0.9831  2.5  -5  1.1  0.9  1  1;
  33  100  20  6.32  0.9972  1.5  -5  1.1  0.9  1  1;
  34  100  20  5.08  1.0123  2  -3  1.1  0.9  1  1;
  35  100  20  6.5  1.0493  2.5  -5  1.1  0.9  1  1;
  36  100  20  5.6  1.0635  1.5  -5  1.1  0.9  1  1;
  37  100  20  5.4  1.0278  0.5  -5  1.1  0.9  1  1;
  38  100  20  8.3  1.0265  0.5  -5  1.1  0.9  1  1;
 ];

PQ.con = [ ... 
  % 3  100  345  3.22  0.024  1.1  0.9  1  1;
  % 4  100  345  5  1.84  1.1  0.9  1  1;
  3  100  345  2.22  0.008  1.1  0.9  1  1;
  4  100  345  4  1.44  1.1  0.9  1  1;
  23  100  345  2.475  0.846  1.1  0.9  1  1;
  24  100  345  3.086  -0.92  1.1  0.9  1  1;
  25  100  345  2.24  0.472  1.1  0.9  1  1;
  26  100  345  1.39  0.17  1.1  0.9  1  1;
  27  100  345  2.81  0.755  1.1  0.9  1  1;
  28  100  345  2.06  0.276  1.1  0.9  1  1;
  29  100  345  2.835  0.269  1.1  0.9  1  1;
  31  100  20  0.092  0.046  1.1  0.9  1  1;
  39  100  345  11.04  2.5  1.1  0.9  1  1;
  % 7  100  345  2.338  0.84  1.1  0.9  1  1;
  % 8  100  345  5.22  1.76  1.1  0.9  1  1;
  7  100  345  1.338  0.60  1.1  0.9  1  1;
  8  100  345  4.22  1.36  1.1  0.9  1  1;
  12  100  345  0.085  0.88  1.1  0.9  1  1;
  % 15  100  345  3.2  1.53  1.1  0.9  1  1;
  % 16  100  345  3.29  0.323  1.1  0.9  1  1;
  % 18  100  345  1.58  0.3  1.1  0.9  1  1;
  15  100  345  2.2  1.13  1.1  0.9  1  1;
  16  100  345  2.29  0.243  1.1  0.9  1  1;
  18  100  345  0.58  0.15  1.1  0.9  1  1;
  20  100  345  6.28  1.03  1.1  0.9  1  1;
  21  100  345  2.74  1.15  1.1  0.9  1  1;
 ];

Pl.con = [ ...
  3  100  345   60  30  30  40  30  30  40  1   1;
  4  100  345   60  30  30  40  30  30  40  1   1;
  23  100  345  60  30  30  40  30  30  40  1   1;
  24  100  345  60  30  30  40  30  30  40  1   1;
  25  100  345  60  30  30  40  30  30  40  1   1;
  26  100  345  60  30  30  40  30  30  40  1   1;
  27  100  345  60  30  30  40  30  30  40  1   1;
  28  100  345  60  30  30  40  30  30  40  1   1;
  29  100  345  60  30  30  40  30  30  40  1   1;
  31  100  20   60  30  30  40  30  30  40  1   1;
  39  100  345  60  30  30  40  30  30  40  1   1;
  7  100  345   60  30  30  40  30  30  40  1   1;
  8  100  345   60  30  30  40  30  30  40  1   1;
  12  100  345  60  30  30  40  30  30  40  1   1;
  15  100  345  60  30  30  40  30  30  40  1   1;
  16  100  345  60  30  30  40  30  30  40  1   1;
  18  100  345  60  30  30  40  30  30  40  1   1;
  20  100  345  60  30  30  40  30  30  40  1   1;
  21  100  345  60  30  30  40  30  30  40  1   1;    
   ];

Syn.con = [ ... 
  33  1000  20  60  6  0.155  0.0046  2.07  0.28  0.215  4.1  0.033  1.99  0.49  0.215  0.56  0.062  2.09  0  0  0  1  1  0.002  0  0  1  1;
  35  1000  20  60  6  0.155  0.0046  2.07  0.28  0.215  4.1  0.033  1.99  0.49  0.215  0.56  0.062  2.09  0  0  0  1  1  0.002  0  0  1  1;
  34  1000  20  60  6  0.155  0.0046  2.07  0.28  0.215  4.1  0.033  1.99  0.49  0.215  0.56  0.062  2.09  0  0  0  1  1  0.002  0  0  1  1;
  36  1000  20  60  6  0.155  0.0046  2.07  0.28  0.215  4.1  0.033  1.99  0.49  0.215  0.56  0.062  2.09  0  0  0  1  1  0.002  0  0  1  1;
  32  1000  20  60  6  0.155  0.0046  2.07  0.28  0.215  4.1  0.033  1.99  0.49  0.215  0.56  0.062  2.09  0  0  0  1  1  0.002  0  0  1  1;
  31  1000  20  60  6  0.155  0.0046  2.07  0.28  0.215  4.1  0.033  1.99  0.49  0.215  0.56  0.062  2.09  0  0  0  1  1  0.002  0  0  1  1;
  38  1000  20  60  6  0.155  0.0046  2.07  0.28  0.215  4.1  0.033  1.99  0.49  0.215  0.56  0.062  2.09  0  0  0  1  1  0.002  0  0  1  1;
  39  1000  345  60  6  0.155  0.0046  2.07  0.28  0.215  4.1  0.033  1.99  0.49  0.215  0.56  0.062  2.09  0  0  0  1  1  0.002  0  0  1  1;
  30  1000  20  60  6  0.155  0.0046  2.07  0.28  0.215  4.1  0.033  1.99  0.49  0.215  0.56  0.062  2.09  0  0  0  1  1  0.002  0  0  1  1;
  37  1000  20  60  6  0.155  0.0046  2.07  0.28  0.215  4.1  0.033  1.99  0.49  0.215  0.56  0.062  2.09  0  0  0  1  1  0.002  0  0  1  1;
 ];

Tg.con = [ ... 
  1  2  1  0.02  1.05  0  0.1  0.45  0  12  50  1;
  2  2  1  0.02  1.05  0  0.1  0.45  0  12  50  1;
  3  2  1  0.02  1.05  0  0.1  0.45  0  12  50  1;
  4  2  1  0.02  1.05  0  0.1  0.45  0  12  50  1;
  5  2  1  0.02  1.05  0  0.1  0.45  0  12  50  1;
  6  2  1  0.02  1.05  0  0.1  0.45  0  12  50  1;
  7  2  1  0.02  1.05  0  0.1  0.45  0  12  50  1;
  8  2  1  0.02  1.05  0  0.1  0.45  0  12  50  1;
  9  2  1  0.02  1.05  0  0.1  0.45  0  12  50  1;
  10  2  1  0.02  1.05  0  0.1  0.45  0  12  50  1;
 ];

% Exc.con = [ ... 
%   3  3  5  -5  300  0.1  0.45  1  0.01  2  0.001  0.0006  0.9  1;
%   2  3  5  -5  300  0.1  0.45  1  0.01  2  0.001  0.0006  0.9  1;
%   1  3  5  -5  300  0.1  0.45  1  0.01  2  0.001  0.0006  0.9  1;
%   4  3  5  -5  300  0.1  0.45  1  0.01  2  0.001  0.0006  0.9  1;
%   5  3  5  -5  300  0.1  0.45  1  0.01  2  0.001  0.0006  0.9  1;
%   6  3  5  -5  300  0.1  0.45  1  0.01  2  0.001  0.0006  0.9  1;
%   7  3  5  -5  300  0.1  0.45  1  0.01  2  0.001  0.0006  0.9  1;
%   8  3  5  -5  300  0.1  0.45  1  0.01  2  0.001  0.0006  0.9  1;
%   9  3  5  -5  300  0.1  0.45  1  0.01  2  0.001  0.0006  0.9  1;
%   10  3  5  -5  300  0.1  0.45  1  0.01  2  0.001  0.0006  0.9  1;
%  ];

Exc.con = [ ... 
  3  3  5  -5  300  0.1  0.45  1  0.01  2  0.001  0.0006  0.9  1;
  8  3  5  -5  300  0.1  0.45  1  0.01  2  0.001  0.0006  0.9  1;
 ];

Ind.con = [ ... 
    3  100  345  50  3  0  0  0.15  0.05  0.15  0.001  0.04  5  3  0.25  0  0  0  0  1;
    3  100  345  50  3  0  0  0.15  0.05  0.15  0.001  0.04  5  3  0.25  0  0  0  0  1;
    3  100  345  50  3  0  0  0.15  0.05  0.15  0.001  0.04  5  3  0.25  0  0  0  0  1;
    3  100  345  50  3  0  0  0.15  0.05  0.15  0.001  0.04  5  3  0.25  0  0  0  0  1;
    4  100  345  50  3  0  0  0.15  0.05  0.15  0.001  0.04  5  3  0.25  0  0  0  0  1;
    4  100  345  50  3  0  0  0.15  0.05  0.15  0.001  0.04  5  3  0.25  0  0  0  0  1;
    4  100  345  50  3  0  0  0.15  0.05  0.15  0.001  0.04  5  3  0.25  0  0  0  0  1;
    4  100  345  50  3  0  0  0.15  0.05  0.15  0.001  0.04  5  3  0.25  0  0  0  0  1;
    7  100  345  50  3  0  0  0.15  0.05  0.15  0.001  0.04  5  3  0.25  0  0  0  0  1;
    7  100  345  50  3  0  0  0.15  0.05  0.15  0.001  0.04  5  3  0.25  0  0  0  0  1;
    7  100  345  50  3  0  0  0.15  0.05  0.15  0.001  0.04  5  3  0.25  0  0  0  0  1;
    7  100  345  50  3  0  0  0.15  0.05  0.15  0.001  0.04  5  3  0.25  0  0  0  0  1;
    8  100  345  50  3  0  0  0.15  0.05  0.15  0.001  0.04  5  3  0.25  0  0  0  0  1;
    8  100  345  50  3  0  0  0.15  0.05  0.15  0.001  0.04  5  3  0.25  0  0  0  0  1;
    8  100  345  50  3  0  0  0.15  0.05  0.15  0.001  0.04  5  3  0.25  0  0  0  0  1;
    8  100  345  50  3  0  0  0.15  0.05  0.15  0.001  0.04  5  3  0.25  0  0  0  0  1;
    15  100  345  50  3  0  0  0.15  0.05  0.15  0.001  0.04  5  3  0.25  0  0  0  0  1;
    15  100  345  50  3  0  0  0.15  0.05  0.15  0.001  0.04  5  3  0.25  0  0  0  0  1;
    15  100  345  50  3  0  0  0.15  0.05  0.15  0.001  0.04  5  3  0.25  0  0  0  0  1;
    15  100  345  50  3  0  0  0.15  0.05  0.15  0.001  0.04  5  3  0.25  0  0  0  0  1;
    16  100  345  50  3  0  0  0.15  0.05  0.15  0.001  0.04  5  3  0.25  0  0  0  0  1;
    16  100  345  50  3  0  0  0.15  0.05  0.15  0.001  0.04  5  3  0.25  0  0  0  0  1;
    16  100  345  50  3  0  0  0.15  0.05  0.15  0.001  0.04  5  3  0.25  0  0  0  0  1;
    16  100  345  50  3  0  0  0.15  0.05  0.15  0.001  0.04  5  3  0.25  0  0  0  0  1;
    18  100  345  50  3  0  0  0.15  0.05  0.15  0.001  0.04  5  3  0.25  0  0  0  0  1;
    18  100  345  50  3  0  0  0.15  0.05  0.15  0.001  0.04  5  3  0.25  0  0  0  0  1;
    18  100  345  50  3  0  0  0.15  0.05  0.15  0.001  0.04  5  3  0.25  0  0  0  0  1;
    18  100  345  50  3  0  0  0.15  0.05  0.15  0.001  0.04  5  3  0.25  0  0  0  0  1;
 ];

Fault.con = [ ... 
 6  100  345  50  1  1.2  0.01  0.01;
 ];

Bus.names = {... 
  'Bus01'; 'Bus02'; 'Bus03'; 'Bus04'; 'Bus05'; 
  'Bus06'; 'Bus07'; 'Bus08'; 'Bus09'; 'Bus10'; 
  'Bus11'; 'Bus12'; 'Bus13'; 'Bus14'; 'Bus15'; 
  'Bus16'; 'Bus17'; 'Bus18'; 'Bus19'; 'Bus20'; 
  'Bus21'; 'Bus22'; 'Bus23'; 'Bus24'; 'Bus25'; 
  'Bus26'; 'Bus27'; 'Bus28'; 'Bus29'; 'Bus30'; 
  'Bus31'; 'Bus32'; 'Bus33'; 'Bus34'; 'Bus35'; 
  'Bus36'; 'Bus37'; 'Bus38'; 'Bus39'};

Varname.idx = [... 
    1;     2;     3;     4;     5;     6;     7;
    8;     9;    10;    11;    12;    13;    14;
   15;    16;    17;    18;    19;    20;    21;
   22;    23;    24;    25;    26;    27;    28;
   29;    30;    31;    32;    33;    34;    35;
   36;    37;    38;    39;    40;    41;    42;
   43;    44;    45;    46;    47;    48;    49;
   50;    51;    52;    53;    54;    55;    56;
   57;    58;    59;    60;    61;    62;    63;
   64;    65;    66;    67;    68;    69;    70;
   71;    72;    73;    74;    75;    76;    77;
   78;    79;    80;    81;    82;    83;    84;
   85;    86;    87;    88;    89;    90;    91;
   92;    93;    94;    95;    96;    97;    98;
   99;   100;   101;   102;   103;   104;   105;
  106;   107;   108;   109;   110;   111;   112;
  113;   114;   115;   116;   117;   118;   119;
  120;   121;   122;   123;   124;   125;   126;
  127;   128;   129;   130;   131;   132;   133;
  134;   135;   136;   137;   138;   139;   140;
  141;   142;   143;   144;   145;   146;   147;
  148;   149;   150;   151;   152;   153;   154;
  155;   156;   157;   158;   159;   160;   161;
  162;   163;   164;   165;   166;   167;   168;
  169;   170;   171;   172;   173;   174;   175;
  176;   177;   178;   179;   180;   181;   182;
  183;   184;   185;   186;   187;   188;   189;
  190;   191;   192;   193;   194;   195;   196;
  197;   198;   199;   200;   201;   202;   203;
  204;   205;   206;   207;   208;   209;   210;
  211;   212;   213;   214;   215;   216;   217;
  218;   219;   220;   221;   222;   223;   224;
  225;   226;   227;   228;   229;   230;   231;
  232;   233;   234;   235;   236;   237;   238;
  239;   240;   241;   242;   243;   244;   245;
  246;   247;   248;   249;   250;   251;   252;
  253;   254;   255;   256;   257;   258;   259;
  260;   261;   262;   263;   264;   265;   266;
  267;   268;   269;   270;   271;   272;   273;
  274;   275;   276;   277;   278;   279;   280;
  281;   282;   283;   284;   285;   286;   287;
  288;   289;   290;   291;   292;   293;   294;
  295;   296;   297;   298;   299;   300;   301;
  302;   303;   304;   305;   306;   307;   308;
  309;   310;   311;   312;   313;   314;   315;
  316;   317;   318;   319;   320;   321;   322;
  323;   324;   325;   326;   327;   328;   329;
  330;   331;   332;   333;   334;   335;   336;
  337;   338;   339;   340;   341;   342;   343;
  344;   345;   346;   347;   348;   349;   350;
  351;   352;   353;   354;   355;   356;   357;
  358;   359;   360;   361;   362;   363;   364;
  365;   366;   367;   368;   369;   370;   371;
  372;   373;   374;   375;   376;   377;   378;
  379;   380;   381;   382;   383;   384;   385;
  386;   387;   388;   389;   390;   391;   392;
  393;   394;   395;   396;   397;   398;   399;
  400;   401;   402;   403;   404;   405;   406;
  407;   408;   409;   410;   411;   412;   413;
  414;   415;   416;   417;   418;   419;   420;
  421;   422;   423;   424;   425;   426;   427;
  428;   429;   430;   431;   432;   433;   434;
  435;   436;   437;   438;   439;   440;   441;
  442;   443;   444;   445;   446;   447;   448;
  449;   450;   451;   452;   453;   454;   455;
  456;   457;   458;   459;   460;   461;   462;
  463;   464;   465;   466;   467;   468;   469;
  470;   471;   472;   473;   474;   475;   476;
  477;   478;   479;   480;   481;   482;   483;
  484;   485;   486;   487;   488;   489;   490;
  491;   492;   493;   494;   495;   496;   497;
  498;   499;   500;   501;   502;   503;   504;
  505;   506;   507;   508;   509;   510;   511;
  512;   513;   514;   515;   516;   517;   518;
  519;   520;   521;   522;   523;   524;   525;
  526;   527;   528;   529;   530;   531;   532;
  533;   534;   535;   536;   537;   538;   539;
  540;   541;   542;   543;   544;   545;   546;
  547;   548;   549;   550;   551;   552;   553;
  554;   555;   556;   557;   558;   559;   560;
  561;   562;   563;   564;   565;   566;   567;
  568;   569;   570;   571;   572;   573;   574;
  575;   576;   577;   578;   579;   580;   581;
  582;   583;   584;   585;   586;   587;   588;
  589;   590;   591;   592;   593;   594;   595;
  596;   597;   598;   599;   600;   601;   602;
  603;   604;   605;   606;   607;   608;   609;
  610;   611;   612;   613;   614;   615;   616;
  617;   618;   619;   620;   621;   622;   623;
  624;   625;   626;   627;   628;   629;   630;
  631;   632;   633;   634;   635;   636;   637;
  638;   639;   640;   641;   642;   643;   644;
  645;   646;   647;   648;   649;   650;   651;
  652;   653;   654;   655;   656;   657;   658;
  659;   660;   661;   662;   663;   664;   665;
  666;   667;   668;   669;   670;   671;   672;
  673;   674;   675;   676;   677;   678;   679;
  680;   681;   682;   683;   684;   685;   686;
  687;   688;   689;   690;   691;   692;   693;
  694;   695;   696;   697;   698;   699;   700;
  701;   702;   703;   704;   705;   706;   707;
  708;   709;   710;   711;   712;   713;   714;
  715;   716;   717;   718;   719;   720;   721;
  722;   723;   724;   725;   726;   727;   728;
  729;   730;   731;   732;   733;   734;   735;
  736;   737;   738;   739;   740;   741;   742;
  743;   744;   745;   746;   747;   748;   749;
  750;   751;   752;   753;   754;   755;   756;
  757;   758;   759;   760;   761;   762;   763;
  764;   765;   766;   767;   768;   769;   770;
  771;   772;   773;   774;   775;   776;   777;
  778;   779;   780;   781;   782;   783;   784;
  785;   786;   787;   788;   789;   790;   791;
  792;   793;   794;   795;   796;   797;   798;
  799;   800;   801;   802;   803;   804;   805;
  806;   807;   808;   809;   810;   811;   812;
  813;   814;   815;   816;   817;   818;   819;
  820;   821;   822;   823;   824;   825;   826;
  827;   828;   829;   830;   831;   832;   833;
  834;   835;   836;   837;   838;   839;   840;
  841;   842;   843;   844;   845;   846;   847;
  848;   849;   850; 
   ];
